@<TRIPOS>MOLECULE
LIG
8 7 1 0 0
SMALL
USER_CHARGES
****
generated by FESetup
@<TRIPOS>ATOM
     1 C1       1.0850    -0.0090    -0.0660 c3    1 LIG -0.094350
     2 C2       2.5850    -0.0090    -0.0660 c3    1 LIG -0.094350
     3 H3       0.6900    -0.7400     0.6820 hc    1 LIG  0.031450
     4 H4       0.6900    -0.2910    -1.0720 hc    1 LIG  0.031450
     5 H5       0.6900     1.0030     0.1930 hc    1 LIG  0.031450
     6 H6       2.9800    -1.0220    -0.3240 hc    1 LIG  0.031450
     7 H7       2.9800     0.2730     0.9410 hc    1 LIG  0.031450
     8 H8       2.9800     0.7210    -0.8130 hc    1 LIG  0.031450
@<TRIPOS>BOND
     0      1      2 1
     1      1      3 1
     2      1      4 1
     3      1      5 1
     4      2      6 1
     5      2      7 1
     6      2      8 1
@<TRIPOS>SUBSTRUCTURE
  1 LIG 1 TEMP
