@<TRIPOS>MOLECULE
LIG
8 7 1 0 0
SMALL
USER_CHARGES
****
generated by FESetup
@<TRIPOS>ATOM
     1 C1      13.5401    14.1592    13.9846 c3    1 LIG -0.094350
     2 C2      15.0286    14.0980    14.0157 c3    1 LIG -0.094350
     3 H3      13.0740    13.4823    14.7036 hc    1 LIG  0.031450
     4 H4      13.0444    14.1755    13.0118 hc    1 LIG  0.031450
     5 H5      13.1956    15.0550    14.5055 hc    1 LIG  0.031450
     6 H6      15.5902    13.2363    13.6490 hc    1 LIG  0.031450
     7 H7      15.3442    14.3073    15.0399 hc    1 LIG  0.031450
     8 H8      15.3520    14.9353    13.3938 hc    1 LIG  0.031450
@<TRIPOS>BOND
     0      1      2 1
     1      1      3 1
     2      1      4 1
     3      1      5 1
     4      2      6 1
     5      2      7 1
     6      2      8 1
@<TRIPOS>SUBSTRUCTURE
  1 LIG 1 TEMP
