@<TRIPOS>MOLECULE
LIG
   17    16     1     0     0
SMALL
No Charge or Current Charge


@<TRIPOS>ATOM
      1 C1          1.0300    0.0820    0.0480 c3        1 LIG     -0.085335
      2 C2          2.5510    0.0820    0.0480 c3        1 LIG     -0.060235
      3 C3          3.0580   -1.2800    0.4960 c3        1 LIG     -0.085335
      4 C4          3.0580    0.3750   -1.3560 c3        1 LIG     -0.085335
      5 C5          3.0580    1.1520    1.0030 c3        1 LIG     -0.085335
      6 H6          0.6430   -0.6980   -0.6500 hc        1 LIG      0.033465
      7 H7          0.6430    1.0770   -0.2800 hc        1 LIG      0.033465
      8 H8          0.6430   -0.1310    1.0730 hc        1 LIG      0.033465
      9 H9          2.6930   -2.0760   -0.1960 hc        1 LIG      0.033465
     10 H10         2.6930   -1.5090    1.5260 hc        1 LIG      0.033465
     11 H11         4.1740   -1.2950    0.5010 hc        1 LIG      0.033465
     12 H12         2.6940   -0.4030   -2.0690 hc        1 LIG      0.033465
     13 H13         4.1740    0.3780   -1.3720 hc        1 LIG      0.033465
     14 H14         2.6940    1.3730   -1.6990 hc        1 LIG      0.033465
     15 H15         2.6940    0.9500    2.0390 hc        1 LIG      0.033465
     16 H16         2.6940    2.1580    0.6870 hc        1 LIG      0.033465
     17 H17         4.1740    1.1640    1.0140 hc        1 LIG      0.033465
@<TRIPOS>BOND
     1    1    2 1   
     2    1    6 1   
     3    1    7 1   
     4    1    8 1   
     5    2    3 1   
     6    2    4 1   
     7    2    5 1   
     8    3    9 1   
     9    3   10 1   
    10    3   11 1   
    11    4   12 1   
    12    4   13 1   
    13    4   14 1   
    14    5   15 1   
    15    5   16 1   
    16    5   17 1   
@<TRIPOS>SUBSTRUCTURE
     1 LIG         1 TEMP              0 ****  ****    0 ROOT
