@<TRIPOS>MOLECULE
solute.pdb
 17 16 0 0 0
SMALL
GASTEIGER

@<TRIPOS>ATOM
      1 C1          1.0160    0.0820    0.0480 C.3     1  LIG        -0.0603
      2 C2          2.5510    0.0820    0.0480 C.3     1  LIG        -0.0405
      3 C3          3.0630   -1.2930    0.5000 C.3     1  LIG        -0.0603
      4 C4          3.0630    0.3780   -1.3690 C.3     1  LIG        -0.0603
      5 C5          3.0630    1.1620    1.0120 C.3     1  LIG        -0.0603
      6 H6          0.6200   -0.6800   -0.6330 H       1  LIG         0.0235
      7 H7          0.6200    1.0530   -0.2720 H       1  LIG         0.0235
      8 H8          0.6200   -0.1260    1.0480 H       1  LIG         0.0235
      9 H9          2.7130   -2.0860   -0.1700 H       1  LIG         0.0235
     10 H10         2.7130   -1.5320    1.5110 H       1  LIG         0.0235
     11 H11         4.1580   -1.3240    0.5110 H       1  LIG         0.0235
     12 H12         2.7130   -0.3780   -2.0820 H       1  LIG         0.0235
     13 H13         4.1580    0.3840   -1.4010 H       1  LIG         0.0235
     14 H14         2.7130    1.3550   -1.7210 H       1  LIG         0.0235
     15 H15         2.7130    0.9770    2.0340 H       1  LIG         0.0235
     16 H16         2.7130    2.1570    0.7150 H       1  LIG         0.0235
     17 H17         4.1580    1.1860    1.0340 H       1  LIG         0.0235
@<TRIPOS>BOND
     1     1     2    1
     2     1     6    1
     3     1     7    1
     4     1     8    1
     5     2     3    1
     6     2     4    1
     7     2     5    1
     8     3     9    1
     9     3    10    1
    10     3    11    1
    11     4    12    1
    12     4    13    1
    13     4    14    1
    14     5    15    1
    15     5    16    1
    16     5    17    1
