@<TRIPOS>MOLECULE
LIG
   12    12     1     0     1 
SMALL
USER_CHARGES
@<TRIPOS>ATOM
  1 C1      1.067000   -0.047000    0.058000 c3    1 LIG    -0.1084 ****
  2 H2      2.179000   -0.047000    0.058000 zz    1 LIG     0.0271 ****
  3 H3      0.696000   -1.058000    0.335000 hc    1 LIG     0.0271 ****
  4 H4      0.697000    0.219000   -0.956000 hc    1 LIG     0.0271 ****
  5 H5      0.697000    0.698000    0.795000 hc    1 LIG     0.0271 ****
  6 DU6     3.139200   -1.005100    0.324200 du    1 LIG     0.0000 ****
  7 DU7     4.425600   -0.367700    0.147700 du    1 LIG     0.0000 ****
  8 DU8     4.173200    0.939300   -0.214800 du    1 LIG     0.0000 ****
  9 DU9     2.798100    1.166000   -0.277700 du    1 LIG     0.0000 ****
 10 DU10    2.978600   -2.038900    0.611300 du    1 LIG     0.0000 ****
 11 DU11    5.392100   -0.845600    0.281200 du    1 LIG     0.0000 ****
 12 DU12    4.780800    1.806300   -0.454600 du    1 LIG     0.0000 ****
@<TRIPOS>BOND
    1     1     2 1
    2     1     3 1
    3     1     4 1
    4     1     5 1
    5     2     6 1
    6     2     9 1
    7     6     7 1
    8     6    10 1
    9     7     8 1
   10     7    11 1
   11     8     9 1
   12     8    12 1
@<TRIPOS>SUBSTRUCTURE
      1  LIG              1 ****               0 ****  **** 
