@<TRIPOS>MOLECULE
LIG
12 12 1 0 0
SMALL
USER_CHARGES
****
generated by FESetup
@<TRIPOS>ATOM
     1 C1       1.0670    -0.0470     0.0580 c3    1 LIG -0.108400
     2 H2       2.1790    -0.0470     0.0580 zz    1 LIG  0.027100
     3 H3       0.6960    -1.0580     0.3350 hc    1 LIG  0.027100
     4 H4       0.6970     0.2190    -0.9560 hc    1 LIG  0.027100
     5 H5       0.6970     0.6980     0.7950 hc    1 LIG  0.027100
     6 DU6      3.1392    -1.0051     0.3242 du    1 LIG  0.000000
     7 DU7      4.4256    -0.3677     0.1477 du    1 LIG  0.000000
     8 DU8      4.1732     0.9393    -0.2148 du    1 LIG  0.000000
     9 DU9      2.7981     1.1660    -0.2777 du    1 LIG  0.000000
    10 DU10     2.9786    -2.0389     0.6113 du    1 LIG  0.000000
    11 DU11     5.3921    -0.8456     0.2812 du    1 LIG  0.000000
    12 DU12     4.7808     1.8063    -0.4546 du    1 LIG  0.000000
@<TRIPOS>BOND
     0      1      2 1
     1      1      3 1
     2      1      4 1
     3      1      5 1
     4      2      6 1
     5      2      9 1
     6      6      7 1
     7      6     10 1
     8      7      8 1
     9      7     11 1
    10      8      9 1
    11      8     12 1
@<TRIPOS>SUBSTRUCTURE
  1 LIG 1 TEMP
