@<TRIPOS>MOLECULE
LIG
12 12 1 0 0
SMALL
USER_CHARGES
****
generated by FESetup
@<TRIPOS>ATOM
     1 C1      13.4568    14.6401    13.7744 c3    1 LIG -0.130567
     2 C2      14.9222    14.7316    13.7667 cc    1 LIG  0.248833
     3 C3      15.6850    15.9199    13.6505 cd    1 LIG -0.264467
     4 C4      17.0566    15.4552    13.6902 cd    1 LIG -0.262467
     5 C5      16.9977    14.0752    13.7744 cc    1 LIG  0.234433
     6 O6      15.6905    13.5709    13.8215 os    1 LIG -0.366967
     7 H7      13.0122    15.6361    13.7225 hc    1 LIG  0.056866
     8 H8      13.1712    14.2511    14.7540 hc    1 LIG  0.056866
     9 H9      13.1108    14.0000    12.9602 hc    1 LIG  0.056866
    10 H10     15.3273    16.9424    13.5877 ha    1 LIG  0.159833
    11 H11     17.9463    16.0756    13.6643 ha    1 LIG  0.159833
    12 H12     17.8079    13.3635    13.8742 h4    1 LIG  0.050933
@<TRIPOS>BOND
     0      1      2 1
     1      1      7 1
     2      1      8 1
     3      1      9 1
     4      2      3 1
     5      2      6 1
     6      3      4 1
     7      3     10 1
     8      4      5 1
     9      4     11 1
    10      5      6 1
    11      5     12 1
@<TRIPOS>SUBSTRUCTURE
  1 LIG 1 TEMP
