@<TRIPOS>MOLECULE
LIG
11 10 1 0 0
SMALL
USER_CHARGES
****
generated by FESetup
@<TRIPOS>ATOM
     1 C1      13.3223    15.2084    14.3954 c3    1 LIG -0.093100
     2 C2      14.8844    15.2561    14.3489 c3    1 LIG -0.081400
     3 C3      15.4952    14.0430    13.6183 c3    1 LIG -0.093100
     4 H4      12.8551    16.0639    14.8877 hc    1 LIG  0.032367
     5 H5      12.9920    14.2954    14.8951 hc    1 LIG  0.032367
     6 H6      12.9549    15.1871    13.3673 hc    1 LIG  0.032367
     7 H7      15.3652    15.2823    15.3290 hc    1 LIG  0.036700
     8 H8      15.2200    16.1815    13.8760 hc    1 LIG  0.036700
     9 H9      15.1219    13.1387    14.1035 hc    1 LIG  0.032367
    10 H10     16.5863    14.0616    13.6560 hc    1 LIG  0.032367
    11 H11     15.1683    13.9938    12.5776 hc    1 LIG  0.032367
@<TRIPOS>BOND
     0      1      2 1
     1      1      4 1
     2      1      5 1
     3      1      6 1
     4      2      3 1
     5      2      7 1
     6      2      8 1
     7      3      9 1
     8      3     10 1
     9      3     11 1
@<TRIPOS>SUBSTRUCTURE
  1 LIG 1 TEMP
