@<TRIPOS>MOLECULE
LIG
 14 13 0 0 0
SMALL
USER_CHARGES
****
generated by FESetup
@<TRIPOS>ATOM
      1 C1          1.0300    0.0820    0.0480 C.3     1  LIG        -0.0595
      2 C2          2.5510    0.0820    0.0480 C.3     1  LIG        -0.0304
      3 C3          3.0580   -1.2800    0.4960 C.3     1  LIG        -0.0027
      4 C4          3.0580    0.3750   -1.3560 C.3     1  LIG        -0.0595
      5 C5          3.0580    1.1520    1.0030 C.3     1  LIG        -0.0595
      6 H6          0.6430   -0.6980   -0.6500 H       1  LIG         0.0235
      7 H7          0.6430    1.0770   -0.2800 H       1  LIG         0.0235
      8 H8          0.6430   -0.1310    1.0730 H       1  LIG         0.0235
      9 H12         2.6940   -0.4030   -2.0690 H       1  LIG         0.0235
     10 H13         4.1740    0.3780   -1.3720 H       1  LIG         0.0235
     11 H14         2.6940    1.3730   -1.6990 H       1  LIG         0.0235
     12 H15         2.6940    0.9500    2.0390 H       1  LIG         0.0235
     13 H16         2.6940    2.1580    0.6870 H       1  LIG         0.0235
     14 H17         4.1740    1.1640    1.0140 H       1  LIG         0.0235
@<TRIPOS>BOND
     1     1     2    1
     2     1     6    1
     3     1     7    1
     4     1     8    1
     5     2     3    1
     6     2     4    1
     7     2     5    1
     8     4     9    1
     9     4    10    1
    10     4    11    1
    11     5    12    1
    12     5    13    1
    13     5    14    1
