@<TRIPOS>MOLECULE
LIG
   12    12     1     0     0
SMALL
No Charge or Current Charge


@<TRIPOS>ATOM
      1 C1          1.0790    0.0010    0.0030 c3        1 LIG     -0.130567
      2 C2          2.5350    0.1500    0.0080 cc        1 LIG      0.248833
      3 C3          3.3890    1.2370    0.0080 cd        1 LIG     -0.264467
      4 C4          4.7360    0.7100    0.0140 cd        1 LIG     -0.262467
      5 C5          4.6230   -0.6650    0.0170 cc        1 LIG      0.234433
      6 O6          3.2790   -1.0390    0.0130 os        1 LIG     -0.366967
      7 H7          0.5970    1.0090    0.0020 hc        1 LIG      0.056866
      8 H8          0.7410   -0.5640    0.9090 hc        1 LIG      0.056866
      9 H9          0.7470   -0.5640   -0.9040 hc        1 LIG      0.056866
     10 H10         3.1200    2.2880    0.0040 ha        1 LIG      0.159833
     11 H11         5.6470    1.3020    0.0150 ha        1 LIG      0.159833
     12 H12         5.3190   -1.4980    0.0210 h4        1 LIG      0.050933
@<TRIPOS>BOND
     1    1    2 1   
     2    1    7 1   
     3    1    8 1   
     4    1    9 1   
     5    2    3 2   
     6    2    6 1   
     7    3    4 1   
     8    3   10 1   
     9    4    5 2   
    10    4   11 1   
    11    5    6 1   
    12    5   12 1   
@<TRIPOS>SUBSTRUCTURE
     1 LIG         1 TEMP              0 ****  ****    0 ROOT
