@<TRIPOS>MOLECULE
LIG
    5     4     1     0     0
SMALL
No Charge or Current Charge


@<TRIPOS>ATOM
      1 C1          1.0670   -0.0470    0.0580 c3        1 LIG     -0.108400
      2 H2          2.1790   -0.0470    0.0580 hc        1 LIG      0.027100
      3 H3          0.6960   -1.0580    0.3350 hc        1 LIG      0.027100
      4 H4          0.6970    0.2190   -0.9560 hc        1 LIG      0.027100
      5 H5          0.6970    0.6980    0.7950 hc        1 LIG      0.027100
@<TRIPOS>BOND
     1    1    2 1   
     2    1    3 1   
     3    1    4 1   
     4    1    5 1   
@<TRIPOS>SUBSTRUCTURE
     1 LIG         1 TEMP              0 ****  ****    0 ROOT
