@<TRIPOS>MOLECULE
LIG
    5     4     1     0     1 
SMALL
USER_CHARGES
@<TRIPOS>ATOM
  1 C1      1.067000   -0.047000    0.058000 c3    1 LIG    -0.1084 ****
  2 H2      2.179000   -0.047000    0.058000 hc    1 LIG     0.0271 ****
  3 H3      0.696000   -1.058000    0.335000 hc    1 LIG     0.0271 ****
  4 H4      0.697000    0.219000   -0.956000 hc    1 LIG     0.0271 ****
  5 H5      0.697000    0.698000    0.795000 hc    1 LIG     0.0271 ****
@<TRIPOS>BOND
    1     1     2 1
    2     1     3 1
    3     1     4 1
    4     1     5 1
@<TRIPOS>SUBSTRUCTURE
      1  LIG              1 ****               0 ****  **** 
