@<TRIPOS>MOLECULE
LIG
   17    16     1     0     1 
SMALL
USER_CHARGES
@<TRIPOS>ATOM
  1 C1      1.030000    0.082000    0.048000 c3    1 LIG    -0.0853 ****
  2 C2      2.551000    0.082000    0.048000 c3    1 LIG    -0.0602 ****
  3 C3      3.058000   -1.280000    0.496000 c3    1 LIG    -0.0853 ****
  4 C4      3.058000    0.375000   -1.356000 c3    1 LIG    -0.0853 ****
  5 C5      3.058000    1.152000    1.003000 c3    1 LIG    -0.0853 ****
  6 H6      0.643000   -0.698000   -0.650000 hc    1 LIG     0.0335 ****
  7 H7      0.643000    1.077000   -0.280000 hc    1 LIG     0.0335 ****
  8 H8      0.643000   -0.131000    1.073000 hc    1 LIG     0.0335 ****
  9 H9      2.693000   -2.076000   -0.196000 hc    1 LIG     0.0335 ****
 10 H10     2.693000   -1.509000    1.526000 hc    1 LIG     0.0335 ****
 11 H11     4.174000   -1.295000    0.501000 hc    1 LIG     0.0335 ****
 12 H12     2.694000   -0.403000   -2.069000 hc    1 LIG     0.0335 ****
 13 H13     4.174000    0.378000   -1.372000 hc    1 LIG     0.0335 ****
 14 H14     2.694000    1.373000   -1.699000 hc    1 LIG     0.0335 ****
 15 H15     2.694000    0.950000    2.039000 hc    1 LIG     0.0335 ****
 16 H16     2.694000    2.158000    0.687000 hc    1 LIG     0.0335 ****
 17 H17     4.174000    1.164000    1.014000 hc    1 LIG     0.0335 ****
@<TRIPOS>BOND
    1     1     2 1
    2     1     6 1
    3     1     7 1
    4     1     8 1
    5     2     3 1
    6     2     4 1
    7     2     5 1
    8     3     9 1
    9     3    10 1
   10     3    11 1
   11     4    12 1
   12     4    13 1
   13     4    14 1
   14     5    15 1
   15     5    16 1
   16     5    17 1
@<TRIPOS>SUBSTRUCTURE
      1  LIG              1 ****               0 ****  **** 
