@<TRIPOS>MOLECULE
LIG
   11    10     1     0     1 
SMALL
USER_CHARGES
@<TRIPOS>ATOM
  1 C1      1.057000   -0.072000    0.000000 c3    1 LIG    -0.0931 ****
  2 C2      2.564000   -0.098000   -0.016000 c3    1 LIG    -0.0814 ****
  3 C3      3.095000   -1.299000   -0.755000 c3    1 LIG    -0.0931 ****
  4 H4      0.689000    0.825000    0.553000 hc    1 LIG     0.0324 ****
  5 H5      0.653000   -0.986000    0.500000 hc    1 LIG     0.0324 ****
  6 H6      0.653000   -0.036000   -1.040000 hc    1 LIG     0.0324 ****
  7 H7      2.950000   -0.108000    1.038000 hc    1 LIG     0.0367 ****
  8 H8      2.950000    0.839000   -0.498000 hc    1 LIG     0.0367 ****
  9 H9      2.744000   -2.244000   -0.275000 hc    1 LIG     0.0324 ****
 10 H10     4.212000   -1.296000   -0.754000 hc    1 LIG     0.0324 ****
 11 H11     2.744000   -1.295000   -1.816000 hc    1 LIG     0.0324 ****
@<TRIPOS>BOND
    1     1     2 1
    2     1     4 1
    3     1     5 1
    4     1     6 1
    5     2     3 1
    6     2     7 1
    7     2     8 1
    8     3     9 1
    9     3    10 1
   10     3    11 1
@<TRIPOS>SUBSTRUCTURE
      1  LIG              1 ****               0 ****  **** 
