@<TRIPOS>MOLECULE
LIG
 8 7 0 0 0
SMALL
USER_CHARGES
****
generated by FESetup
@<TRIPOS>ATOM
      1 C1          1.0570   -0.0720    0.0000 C.3     1  LIG        -0.0647
      2 C2          2.5640   -0.0980   -0.0160 C.3     1  LIG        -0.0486
      3 C3          3.0950   -1.2990   -0.7550 C.3     1  LIG        -0.0094
      4 H4          0.6890    0.8250    0.5530 H       1  LIG         0.0230
      5 H5          0.6530   -0.9860    0.5000 H       1  LIG         0.0230
      6 H6          0.6530   -0.0360   -1.0400 H       1  LIG         0.0230
      7 H7          2.9500   -0.1080    1.0380 H       1  LIG         0.0268
      8 H8          2.9500    0.8390   -0.4980 H       1  LIG         0.0268
@<TRIPOS>BOND
     1     1     2    1
     2     1     4    1
     3     1     5    1
     4     1     6    1
     5     2     3    1
     6     2     7    1
     7     2     8    1
