@<TRIPOS>MOLECULE
LIG
11 10 1 0 0
SMALL
USER_CHARGES
****
generated by FESetup
@<TRIPOS>ATOM
     1 C1       1.0570    -0.0720     0.0000 c3    1 LIG -0.093100
     2 C2       2.5640    -0.0980    -0.0160 c3    1 LIG -0.081400
     3 C3       3.0950    -1.2990    -0.7550 c3    1 LIG -0.093100
     4 H4       0.6890     0.8250     0.5530 hc    1 LIG  0.032367
     5 H5       0.6530    -0.9860     0.5000 hc    1 LIG  0.032367
     6 H6       0.6530    -0.0360    -1.0400 hc    1 LIG  0.032367
     7 H7       2.9500    -0.1080     1.0380 hc    1 LIG  0.036700
     8 H8       2.9500     0.8390    -0.4980 hc    1 LIG  0.036700
     9 H9       2.7440    -2.2440    -0.2750 hc    1 LIG  0.032367
    10 H10      4.2120    -1.2960    -0.7540 hc    1 LIG  0.032367
    11 H11      2.7440    -1.2950    -1.8160 hc    1 LIG  0.032367
@<TRIPOS>BOND
     0      1      2 1
     1      1      4 1
     2      1      5 1
     3      1      6 1
     4      2      3 1
     5      2      7 1
     6      2      8 1
     7      3      9 1
     8      3     10 1
     9      3     11 1
@<TRIPOS>SUBSTRUCTURE
  1 LIG 1 TEMP
