@<TRIPOS>MOLECULE
LIG
    8     7     1     0     1 
SMALL
USER_CHARGES
@<TRIPOS>ATOM
  1 C1      1.085000   -0.009000   -0.066000 c3    1 LIG    -0.0944 ****
  2 C2      2.585000   -0.009000   -0.066000 c3    1 LIG    -0.0944 ****
  3 H3      0.690000   -0.740000    0.682000 hc    1 LIG     0.0315 ****
  4 H4      0.690000   -0.291000   -1.072000 hc    1 LIG     0.0315 ****
  5 H5      0.690000    1.003000    0.193000 hc    1 LIG     0.0315 ****
  6 H6      2.980000   -1.022000   -0.324000 hc    1 LIG     0.0315 ****
  7 H7      2.980000    0.273000    0.941000 hc    1 LIG     0.0315 ****
  8 H8      2.980000    0.721000   -0.813000 hc    1 LIG     0.0315 ****
@<TRIPOS>BOND
    1     1     2 1
    2     1     3 1
    3     1     4 1
    4     1     5 1
    5     2     6 1
    6     2     7 1
    7     2     8 1
@<TRIPOS>SUBSTRUCTURE
      1  LIG              1 ****               0 ****  **** 
