@<TRIPOS>MOLECULE
solute.pdb
 11 10 0 0 0
SMALL
GASTEIGER

@<TRIPOS>ATOM
      1 C1          1.0500   -0.0700    0.0020 C.3     1  LIG        -0.0655
      2 C2          2.5690   -0.0930   -0.0120 C.3     1  LIG        -0.0588
      3 C3          3.1010   -1.3050   -0.7590 C.3     1  LIG        -0.0655
      4 H4          0.6890    0.8100    0.5440 H       1  LIG         0.0230
      5 H5          0.6480   -0.9610    0.4950 H       1  LIG         0.0230
      6 H6          0.6480   -0.0300   -1.0160 H       1  LIG         0.0230
      7 H7          2.9430   -0.1050    1.0170 H       1  LIG         0.0260
      8 H8          2.9430    0.8210   -0.4860 H       1  LIG         0.0260
      9 H9          2.7630   -2.2340   -0.2890 H       1  LIG         0.0230
     10 H10         4.1950   -1.3010   -0.7570 H       1  LIG         0.0230
     11 H11         2.7630   -1.3030   -1.8000 H       1  LIG         0.0230
@<TRIPOS>BOND
     1     1     2    1
     2     1     4    1
     3     1     5    1
     4     1     6    1
     5     2     3    1
     6     2     7    1
     7     2     8    1
     8     3     9    1
     9     3    10    1
    10     3    11    1
