@<TRIPOS>MOLECULE
LIG
   14    13     1     0     1 
SMALL
USER_CHARGES
@<TRIPOS>ATOM
  1 C1      0.998000    0.046000    0.086000 c3    1 LIG    -0.0895 ****
  2 C2      2.512000    0.075000    0.094000 c3    1 LIG    -0.0701 ****
  3 C3      3.031000    1.081000   -0.911000 c3    1 LIG    -0.0895 ****
  4 C4      3.031000    0.391000    1.481000 c3    1 LIG    -0.0895 ****
  5 H5      0.620000   -0.213000   -0.932000 hc    1 LIG     0.0327 ****
  6 H6      0.585000    1.043000    0.373000 hc    1 LIG     0.0327 ****
  7 H7      0.620000   -0.715000    0.810000 hc    1 LIG     0.0327 ****
  8 H8      2.888000   -0.946000   -0.200000 hc    1 LIG     0.0443 ****
  9 H9      2.679000    2.110000   -0.654000 hc    1 LIG     0.0327 ****
 10 H10     2.667000    0.830000   -1.936000 hc    1 LIG     0.0327 ****
 11 H11     4.147000    1.081000   -0.920000 hc    1 LIG     0.0327 ****
 12 H12     2.679000    1.399000    1.811000 hc    1 LIG     0.0327 ****
 13 H13     4.147000    0.387000    1.488000 hc    1 LIG     0.0327 ****
 14 H14     2.667000   -0.367000    2.215000 hc    1 LIG     0.0327 ****
@<TRIPOS>BOND
    1     1     2 1
    2     1     5 1
    3     1     6 1
    4     1     7 1
    5     2     3 1
    6     2     4 1
    7     2     8 1
    8     3     9 1
    9     3    10 1
   10     3    11 1
   11     4    12 1
   12     4    13 1
   13     4    14 1
@<TRIPOS>SUBSTRUCTURE
      1  LIG              1 ****               0 ****  **** 
