@<TRIPOS>MOLECULE
solute.pdb
 14 13 0 0 0
SMALL
GASTEIGER

@<TRIPOS>ATOM
      1 C1          0.9870    0.0420    0.0850 C.3     1  LIG        -0.0629
      2 C2          2.5140    0.0700    0.0930 C.3     1  LIG        -0.0496
      3 C3          3.0360    1.0860   -0.9200 C.3     1  LIG        -0.0629
      4 C4          3.0360    0.3900    1.4910 C.3     1  LIG        -0.0629
      5 H5          0.6080   -0.2150   -0.9100 H       1  LIG         0.0232
      6 H6          0.5700    1.0150    0.3650 H       1  LIG         0.0232
      7 H7          0.6080   -0.7050    0.7900 H       1  LIG         0.0232
      8 H8          2.8800   -0.9240   -0.1940 H       1  LIG         0.0293
      9 H9          2.6980    2.0990   -0.6780 H       1  LIG         0.0232
     10 H10         2.6860    0.8440   -1.9300 H       1  LIG         0.0232
     11 H11         4.1310    1.0900   -0.9380 H       1  LIG         0.0232
     12 H12         2.6980    1.3770    1.8260 H       1  LIG         0.0232
     13 H13         4.1310    0.3840    1.5080 H       1  LIG         0.0232
     14 H14         2.6860   -0.3520    2.2170 H       1  LIG         0.0232
@<TRIPOS>BOND
     1     1     2    1
     2     1     5    1
     3     1     6    1
     4     1     7    1
     5     2     3    1
     6     2     4    1
     7     2     8    1
     8     3     9    1
     9     3    10    1
    10     3    11    1
    11     4    12    1
    12     4    13    1
    13     4    14    1
