@<TRIPOS>MOLECULE
solute.pdb
 8 7 0 0 0
SMALL
GASTEIGER

@<TRIPOS>ATOM
      1 C1          1.0790   -0.0090   -0.0660 C.3     1  LIG        -0.0681
      2 C2          2.5910   -0.0090   -0.0660 C.3     1  LIG        -0.0681
      3 H3          0.6950   -0.7250    0.6670 H       1  LIG         0.0227
      4 H4          0.6950   -0.2860   -1.0520 H       1  LIG         0.0227
      5 H5          0.6950    0.9830    0.1880 H       1  LIG         0.0227
      6 H6          2.9750   -1.0020   -0.3190 H       1  LIG         0.0227
      7 H7          2.9750    0.2670    0.9210 H       1  LIG         0.0227
      8 H8          2.9750    0.7070   -0.7980 H       1  LIG         0.0227
@<TRIPOS>BOND
     1     1     2    1
     2     1     3    1
     3     1     4    1
     4     1     5    1
     5     2     6    1
     6     2     7    1
     7     2     8    1
