@<TRIPOS>MOLECULE
LIG
 5 4 0 0 0
SMALL
USER_CHARGES
****
generated by FESetup
@<TRIPOS>ATOM
      1 C1          1.0850   -0.0090   -0.0660 C.3     1  LIG        -0.0580
      2 C2          2.5850   -0.0090   -0.0660 C.3     1  LIG        -0.0127
      3 H3          0.6900   -0.7400    0.6820 H       1  LIG         0.0236
      4 H4          0.6900   -0.2910   -1.0720 H       1  LIG         0.0236
      5 H5          0.6900    1.0030    0.1930 H       1  LIG         0.0236
@<TRIPOS>BOND
     1     1     2    1
     2     1     3    1
     3     1     4    1
     4     1     5    1
