@<TRIPOS>MOLECULE
LIG
17 16 1 0 0
SMALL
USER_CHARGES
****
generated by FESetup
@<TRIPOS>ATOM
     1 C1      13.4118    14.9337    14.9141 c3    1 LIG -0.085335
     2 C2      14.9482    14.7485    15.0371 c3    1 LIG -0.060235
     3 C3      15.3626    13.4055    15.6017 c3    1 LIG -0.085335
     4 C4      15.5991    14.9787    13.6857 c3    1 LIG -0.085335
     5 C5      15.3921    15.8245    16.0615 c3    1 LIG -0.085335
     6 H6      13.0312    14.1509    14.2546 hc    1 LIG  0.033465
     7 H7      13.2334    15.9400    14.5293 hc    1 LIG  0.033465
     8 H8      12.9344    14.9134    15.8960 hc    1 LIG  0.033465
     9 H9      15.1083    12.6927    14.8145 hc    1 LIG  0.033465
    10 H10     14.8769    13.1675    16.5504 hc    1 LIG  0.033465
    11 H11     16.4514    13.3836    15.6823 hc    1 LIG  0.033465
    12 H12     15.1837    14.2591    12.9772 hc    1 LIG  0.033465
    13 H13     16.6825    14.8527    13.7375 hc    1 LIG  0.033465
    14 H14     15.3509    15.9559    13.2663 hc    1 LIG  0.033465
    15 H15     15.0832    15.5201    17.0637 hc    1 LIG  0.033465
    16 H16     15.0396    16.8155    15.7679 hc    1 LIG  0.033465
    17 H17     16.4781    15.9179    15.9953 hc    1 LIG  0.033465
@<TRIPOS>BOND
     0      1      2 1
     1      1      6 1
     2      1      7 1
     3      1      8 1
     4      2      3 1
     5      2      4 1
     6      2      5 1
     7      3      9 1
     8      3     10 1
     9      3     11 1
    10      4     12 1
    11      4     13 1
    12      4     14 1
    13      5     15 1
    14      5     16 1
    15      5     17 1
@<TRIPOS>SUBSTRUCTURE
  1 LIG 1 TEMP
