@<TRIPOS>MOLECULE
LIG
14 13 1 0 0
SMALL
USER_CHARGES
****
generated by FESetup
@<TRIPOS>ATOM
     1 C1      13.3465    14.0836    14.9956 c3    1 LIG -0.089457
     2 C2      14.8756    14.1229    14.9896 c3    1 LIG -0.070057
     3 C3      15.3687    15.0771    13.8866 c3    1 LIG -0.089457
     4 C4      15.5386    14.4059    16.3164 c3    1 LIG -0.089457
     5 H5      13.0671    13.8892    13.9580 hc    1 LIG  0.032676
     6 H6      12.9421    15.0463    15.3152 hc    1 LIG  0.032676
     7 H7      12.9428    13.3281    15.6729 hc    1 LIG  0.032676
     8 H8      15.1671    13.1180    14.6768 hc    1 LIG  0.044343
     9 H9      15.0988    16.1157    14.0888 hc    1 LIG  0.032676
    10 H10     14.9799    14.8243    12.8979 hc    1 LIG  0.032676
    11 H11     16.4607    15.0694    13.8816 hc    1 LIG  0.032676
    12 H12     15.1549    15.3626    16.6770 hc    1 LIG  0.032676
    13 H13     16.6302    14.4356    16.3149 hc    1 LIG  0.032676
    14 H14     15.2380    13.6797    17.0745 hc    1 LIG  0.032676
@<TRIPOS>BOND
     0      1      2 1
     1      1      5 1
     2      1      6 1
     3      1      7 1
     4      2      3 1
     5      2      4 1
     6      2      8 1
     7      3      9 1
     8      3     10 1
     9      3     11 1
    10      4     12 1
    11      4     13 1
    12      4     14 1
@<TRIPOS>SUBSTRUCTURE
  1 LIG 1 TEMP
