@<TRIPOS>MOLECULE
LIG
 11 10 0 0 0
SMALL
USER_CHARGES
****
generated by FESetup
@<TRIPOS>ATOM
      1 C1          0.9980    0.0460    0.0860 C.3     1  LIG        -0.0621
      2 C2          2.5120    0.0750    0.0940 C.3     1  LIG        -0.0394
      3 C3          3.0310    1.0810   -0.9110 C.3     1  LIG        -0.0060
      4 C4          3.0310    0.3910    1.4810 C.3     1  LIG        -0.0621
      5 H5          0.6200   -0.2130   -0.9320 H       1  LIG         0.0233
      6 H6          0.5850    1.0430    0.3730 H       1  LIG         0.0233
      7 H7          0.6200   -0.7150    0.8100 H       1  LIG         0.0233
      8 H8          2.8880   -0.9460   -0.2000 H       1  LIG         0.0301
      9 H12         2.6790    1.3990    1.8110 H       1  LIG         0.0233
     10 H13         4.1470    0.3870    1.4880 H       1  LIG         0.0233
     11 H14         2.6670   -0.3670    2.2150 H       1  LIG         0.0233
@<TRIPOS>BOND
     1     1     2    1
     2     1     5    1
     3     1     6    1
     4     1     7    1
     5     2     3    1
     6     2     4    1
     7     2     8    1
     8     4     9    1
     9     4    10    1
    10     4    11    1
