@<TRIPOS>MOLECULE
LIG
14 13 1 0 0
SMALL
USER_CHARGES
****
generated by FESetup
@<TRIPOS>ATOM
     1 C1       0.9980     0.0460     0.0860 c3    1 LIG -0.089457
     2 C2       2.5120     0.0750     0.0940 c3    1 LIG -0.070057
     3 C3       3.0310     1.0810    -0.9110 c3    1 LIG -0.089457
     4 C4       3.0310     0.3910     1.4810 c3    1 LIG -0.089457
     5 H5       0.6200    -0.2130    -0.9320 hc    1 LIG  0.032676
     6 H6       0.5850     1.0430     0.3730 hc    1 LIG  0.032676
     7 H7       0.6200    -0.7150     0.8100 hc    1 LIG  0.032676
     8 H8       2.8880    -0.9460    -0.2000 hc    1 LIG  0.044343
     9 H9       2.6790     2.1100    -0.6540 hc    1 LIG  0.032676
    10 H10      2.6670     0.8300    -1.9360 hc    1 LIG  0.032676
    11 H11      4.1470     1.0810    -0.9200 hc    1 LIG  0.032676
    12 H12      2.6790     1.3990     1.8110 hc    1 LIG  0.032676
    13 H13      4.1470     0.3870     1.4880 hc    1 LIG  0.032676
    14 H14      2.6670    -0.3670     2.2150 hc    1 LIG  0.032676
@<TRIPOS>BOND
     0      1      2 1
     1      1      5 1
     2      1      6 1
     3      1      7 1
     4      2      3 1
     5      2      4 1
     6      2      8 1
     7      3      9 1
     8      3     10 1
     9      3     11 1
    10      4     12 1
    11      4     13 1
    12      4     14 1
@<TRIPOS>SUBSTRUCTURE
  1 LIG 1 TEMP
