@<TRIPOS>MOLECULE
LIG
12 12 1 0 0
SMALL
USER_CHARGES
****
generated by FESetup
@<TRIPOS>ATOM
     1 C1      13.5429    13.9676    13.5734 c3    1 LIG -0.108400
     2 H2      14.6154    14.1020    13.7288 zz    1 LIG  0.027100
     3 H3      13.2998    12.9482    13.8805 hc    1 LIG  0.027100
     4 H4      13.3028    14.1808    12.5297 hc    1 LIG  0.027100
     5 H5      12.9889    14.6626    14.2079 hc    1 LIG  0.027100
     6 DU6     15.6261    13.2879    14.2049 du    1 LIG  0.000000
     7 DU7     16.8443    14.0666    14.1629 du    1 LIG  0.000000
     8 DU8     16.5041    15.3073    13.6647 du    1 LIG  0.000000
     9 DU9     15.1375    15.3586    13.3887 du    1 LIG  0.000000
    10 DU10    15.5414    12.2622    14.5480 du    1 LIG  0.000000
    11 DU11    17.8273    13.7206    14.4704 du    1 LIG  0.000000
    12 DU12    17.0394    16.2257    13.4452 du    1 LIG  0.000000
@<TRIPOS>BOND
     0      1      2 1
     1      1      3 1
     2      1      4 1
     3      1      5 1
     4      2      6 1
     5      2      9 1
     6      6      7 1
     7      6     10 1
     8      7      8 1
     9      7     11 1
    10      8      9 1
    11      8     12 1
@<TRIPOS>SUBSTRUCTURE
  1 LIG 1 TEMP
